L1 N002 N001 1m
R1 N005 0 100
D1 N002 N003
V1 N001 N004 AC(1m 0)
V2 N004 0 5
R2 N005 N003 50
.ac dec 10 10 1k
.end