Version 4
SHEET 1 880 680
WIRE 176 -96 64 -96
WIRE 336 -96 256 -96
WIRE 448 -96 400 -96
WIRE 64 -32 64 -96
WIRE 64 96 64 48
WIRE 528 96 528 -96
WIRE 64 256 64 176
WIRE 528 272 528 176
FLAG 528 272 0
FLAG 64 256 0
SYMBOL ind 272 -112 R90
WINDOW 0 5 56 VBottom 2
WINDOW 3 32 56 VTop 2
SYMATTR InstName L1
SYMATTR Value 1m
SYMBOL res 512 80 R0
SYMATTR InstName R1
SYMATTR Value 100
SYMBOL diode 336 -80 R270
WINDOW 0 32 32 VTop 2
WINDOW 3 0 32 VBottom 2
SYMATTR InstName D1
SYMATTR Value 1N914
SYMBOL voltage 64 -48 R0
WINDOW 123 24 124 Left 2
WINDOW 39 0 0 Left 0
SYMATTR InstName V1
SYMATTR Value ""
SYMATTR Value2 AC 1m
SYMBOL voltage 64 80 R0
WINDOW 123 0 0 Left 0
WINDOW 39 0 0 Left 0
SYMATTR InstName V2
SYMATTR Value 5
SYMBOL res 544 -112 R90
WINDOW 0 0 56 VBottom 2
WINDOW 3 32 56 VTop 2
SYMATTR InstName R2
SYMATTR Value 50
TEXT -160 -32 Left 2 !.ac dec 10 10 1k
