R1 N001 0 22k
R2 N001 N002 240k
R4 0 N003 1k
Q1 N004 N001 N003 NPN
R3 N002 N004 10k
V1 N002 0 20
V2 N005 0 AC(1m 0)
C1 N005 N001 1u
.ac dec 10 10 100k
.end