C1 N002 0 1u
V1 N001 0 AC(1 0)
Q1 N001 N002 0 NPN
R1 N001 N002 1k
L1 N002 N003 1m
D1 N004 N003 
I1 0 N004 0.1
R2 N002 N003 1Meg
.ac dec 10 10 100k
.end
