R1 0 N001 22k
R2 N001 N002 240k
R4 0 N003 1k
R3 N002 N004 10k
Q1 N004 N001 N003 NPN
V1 N002 0 20
C1 N005 N001 1u
V2 N005 0 AC(1m 0)
.ac dec 10 10 100
.end