R1 N001 N004 5.3k
R2 N004 N003 10k
C1 N003 N002 1u
V1 N002 0 AC(1m 0)
V2 N001 0 5
M1 N004 N003 0 NMOS
.ac dec 10 10 100
.end