Version 4
SHEET 1 916 680
WIRE 448 160 288 160
WIRE 656 160 448 160
WIRE 448 192 448 160
WIRE 656 192 656 160
WIRE 288 224 288 160
WIRE 448 288 448 272
WIRE 192 336 160 336
WIRE 288 336 288 304
WIRE 288 336 256 336
WIRE 384 336 288 336
WIRE 160 352 160 336
WIRE 288 368 288 336
WIRE 448 400 448 384
WIRE 160 464 160 432
WIRE 288 512 288 448
WIRE 448 512 448 480
WIRE 448 512 288 512
WIRE 656 512 656 272
WIRE 656 512 448 512
WIRE 656 544 656 512
FLAG 656 544 0
FLAG 160 464 0
DATAFLAG 464 160 "$"
SYMBOL res 272 352 R0
SYMATTR InstName R1
SYMATTR Value 22k
SYMBOL res 272 208 R0
SYMATTR InstName R2
SYMATTR Value 240k
SYMBOL res 432 176 R0
SYMATTR InstName R3
SYMATTR Value 10k
SYMBOL npn 384 288 R0
SYMATTR InstName Q1
SYMATTR Value 2N2222
SYMBOL res 432 384 R0
SYMATTR InstName R4
SYMATTR Value 1k
SYMBOL voltage 656 176 R0
SYMATTR InstName V1
SYMATTR Value 20
SYMBOL voltage 160 336 R0
WINDOW 123 24 38 Left 2
SYMATTR Value2 AC 1m 0
SYMATTR InstName V2
SYMATTR Value ""
SYMBOL cap 256 320 R90
WINDOW 0 0 32 VBottom 2
WINDOW 3 32 32 VTop 2
SYMATTR InstName C1
SYMATTR Value 1µ
TEXT 768 288 Left 2 !;op
TEXT 696 376 Left 2 !.ac dec 10 10 100
TEXT 112 336 Left 2 ;n5
TEXT 464 280 Left 2 ;n4
TEXT 472 392 Left 2 ;n3
TEXT 552 152 Left 2 ;n2
TEXT 304 320 Left 2 ;n1
